# Open-boundaries
 &OBCS_PARM01
# The first number should be Nx
 OB_Jnorth=1000*-1.,
 OB_Jsouth=1000*1.,
 useOBCSprescribe = .TRUE.,
 useOBCSsponge=.TRUE.,
 OBNuFile='UVspng.bin',
 OBNvFile='UVspng.bin',
 OBSuFile='UVspng.bin',
 OBSvFile='UVspng.bin',
 &

# Sponge parameters
 &OBCS_PARM03
 spongeThickness=20.,
 Urelaxobcsinner=3000.,
 Urelaxobcsbound=300.,
 Vrelaxobcsinner=3000.,
 Vrelaxobcsbound=300.,
 &
