# Packages
 &PACKAGES
  useOBCS=.FALSE.,
  useDiagnostics=.TRUE.,
 &
