# Packages
 &PACKAGES
  useGMRedi=.FALSE.,
  useKPP=.FALSE.,
 &
