# Open-boundaries
 &OBCS_PARM01
 OB_Jnorth=1*-1.,
 OB_Jsouth=1*-1.,
 useOBCSprescribe = .TRUE.,
 useOBCSsponge=.TRUE.,
 OBNuFile='Uref.bin',
 OBNvFile='Vref.bin',
 OBSuFile='Uref.bin',
 OBSvFile='Vref.bin',
 &

# Sponge parameters
 &OBCS_PARM03
 spongeThickness=8.,
 Urelaxobcsinner=3000.,
 Urelaxobcsbound=300.,
 Vrelaxobcsinner=3000.,
 Vrelaxobcsbound=300.,
 &
