# MNC parameters
 &MNC_01
 mnc_use_outdir=.TRUE.,
 mnc_outdir_str='mnc_test_',
 monitor_mnc=.FALSE.,
# snapshot_mnc=.FALSE.,
# timeave_mnc=.FALSE.,
 pickup_write_mnc=.FALSE.,
 pickup_read_mnc=.FALSE.,
 &
