# Packages
 &PACKAGES
  useGMRedi=.TRUE.,
  useKPP=.FALSE.,
  useMNC=.TRUE.,
 &
