# Packages
 &PACKAGES
  useOBCS=.FALSE.,
# useDiagnostics=.FALSE.,
 &
