# Packages
 &PACKAGES
  useOBCS=.TRUE.,
# useDiagnostics=.FALSE.,
 &
